3
Properties=species:S:1:pos:R:3 dipole="-2.38248868e-06 0.825458339 2.19718558e-07" pbc="F F F"
O        3.77945000       3.38475000       3.77945000
H        3.77945000       4.54372000       5.21153000
H        3.77945000       4.54372000       2.34738000
3
Properties=species:S:1:pos:R:3 dipole="-2.71310268e-06 0.856650146 -0.0490330339" pbc="F F F"
O        3.77945000       3.34695000       3.84845000
H        3.77945000       4.53621000       5.10436000
H        3.77945000       4.58903000       2.38554000
3
Properties=species:S:1:pos:R:3 dipole="4.30476778e-06 0.210199429 0.0926930108" pbc="F F F"
O        3.77945000       3.99950000       3.72100000
H        3.77945000       4.25871000       5.48186000
H        3.77945000       4.21397000       2.13549000
3
Properties=species:S:1:pos:R:3 dipole="-4.39617202e-07 0.717411482 0.31693622" pbc="F F F"
O        3.77945000       3.58560000       3.44577000
H        3.77945000       4.57102000       5.25922000
H        3.77945000       4.31557000       2.63336000
3
Properties=species:S:1:pos:R:3 dipole="-4.85128317e-06 1.00257368 0.051410491" pbc="F F F"
O        3.77946000       3.00806000       3.66154000
H        3.77945000       4.77721000       5.22223000
H        3.77945000       4.68693000       2.45459000
3
Properties=species:S:1:pos:R:3 dipole="-1.79652848e-06 0.750314527 -0.153333584" pbc="F F F"
O        3.77945000       3.44450000       3.97303000
H        3.77945000       4.43975000       5.38139000
H        3.77945000       4.58795000       1.98394000
3
Properties=species:S:1:pos:R:3 dipole="-4.87067061e-06 1.00525779 -0.0709707462" pbc="F F F"
O        3.77946000       3.01300000       3.93886000
H        3.77945000       4.66859000       5.04914000
H        3.77945000       4.79061000       2.35035000
3
Properties=species:S:1:pos:R:3 dipole="6.43180576e-07 0.618057098 0.206296228" pbc="F F F"
O        3.77945000       3.68662000       3.58837000
H        3.77945000       4.46592000       5.21753000
H        3.77945000       4.31965000       2.53245000
3
Properties=species:S:1:pos:R:3 dipole="-1.90921119e-06 0.788456136 0.0516270277" pbc="F F F"
O        3.77945000       3.43974000       3.71592000
H        3.77945000       4.54054000       5.26757000
H        3.77945000       4.49191000       2.35486000
3
Properties=species:S:1:pos:R:3 dipole="3.40456654e-06 0.294089427 0.372242029" pbc="F F F"
O        3.77945000       3.93403000       3.54397000
H        3.77945000       4.35920000       5.74670000
H        3.77945000       4.17894000       2.04768000
3
Properties=species:S:1:pos:R:3 dipole="-1.03398615e-06 0.720053719 0.0305544561" pbc="F F F"
O        3.77945000       3.53422000       3.74673000
H        3.77945000       4.48151000       5.27091000
H        3.77945000       4.45646000       2.32071000
3
Properties=species:S:1:pos:R:3 dipole="-3.56537549e-06 0.916930456 0.0874115207" pbc="F F F"
O        3.77946000       3.22458000       3.63091000
H        3.77945000       4.68066000       5.23926000
H        3.77945000       4.56695000       2.46819000
3
Properties=species:S:1:pos:R:3 dipole="-5.26584665e-06 1.02962023 0.0473142472" pbc="F F F"
O        3.77946000       2.92609000       3.66149000
H        3.77945000       4.81821000       5.20738000
H        3.77945000       4.72789000       2.46949000
3
Properties=species:S:1:pos:R:3 dipole="5.32843069e-06 0.126948669 0.0635251885" pbc="F F F"
O        3.77945000       4.06604000       3.73699000
H        3.77945000       4.21932000       5.31978000
H        3.77945000       4.18682000       2.28159000
3
Properties=species:S:1:pos:R:3 dipole="-1.89125268e-06 0.780666367 -0.0205294488" pbc="F F F"
O        3.77945000       3.44140000       3.80470000
H        3.77945000       4.50573000       5.27004000
H        3.77945000       4.52506000       2.26362000
3
Properties=species:S:1:pos:R:3 dipole="2.94856428e-06 0.358577424 -0.210418932" pbc="F F F"
O        3.77945000       3.88645000       3.92355000
H        3.77945000       4.23770000       5.37339000
H        3.77945000       4.34803000       2.04141000
3
Properties=species:S:1:pos:R:3 dipole="-6.84329197e-06 1.09799937 -0.0382356839" pbc="F F F"
O        3.77946000       2.41431000       3.86222000
H        3.77945000       4.99728000       4.66306000
H        3.77945000       5.06062000       2.81308000
3
Properties=species:S:1:pos:R:3 dipole="-6.66280544e-06 1.11187491 0.0912362864" pbc="F F F"
O        3.77946000       2.54204000       3.50776000
H        3.77945000       5.06908000       5.29858000
H        3.77945000       4.86108000       2.53202000
3
Properties=species:S:1:pos:R:3 dipole="-3.37798391e-06 0.922673619 0.119920352" pbc="F F F"
O        3.77946000       3.26106000       3.59298000
H        3.77945000       4.67695000       5.04671000
H        3.77945000       4.53419000       2.69866000
3
Properties=species:S:1:pos:R:3 dipole="-7.80590283e-07 0.717239005 -0.0622943932" pbc="F F F"
O        3.77945000       3.56173000       3.84480000
H        3.77945000       4.43022000       5.08299000
H        3.77945000       4.48025000       2.41057000
